untitled.mol
  ChemDraw08272616012D

  0  0  0     0  0              0 V3000
M  V30 BEGIN CTAB
M  V30 COUNTS 7 6 0 0 0
M  V30 BEGIN ATOM
M  V30 1 C -1.071706 -0.085431 0.000000 0
M  V30 2 C -0.357235 0.327069 0.000000 0
M  V30 3 C 0.357235 -0.085431 0.000000 0
M  V30 4 Br -0.940598 0.910431 0.000000 0
M  V30 5 C 1.071706 0.327069 0.000000 0
M  V30 6 C 0.357235 -0.910431 0.000000 0
M  V30 7 Br 0.226128 0.910431 0.000000 0
M  V30 END ATOM
M  V30 BEGIN BOND
M  V30 1 1 1 2
M  V30 2 1 2 3
M  V30 3 1 2 4
M  V30 4 1 3 5
M  V30 5 1 3 6
M  V30 6 1 2 7
M  V30 END BOND
M  V30 END CTAB
M  END
