structure.mol
  ChemDraw08272616112D

  0  0  0     0  0              0 V3000
M  V30 BEGIN CTAB
M  V30 COUNTS 11 10 0 0 0
M  V30 BEGIN ATOM
M  V30 1 O -1.428941 -0.618750 0.000000 0
M  V30 2 C -0.714471 -0.206250 0.000000 0
M  V30 3 C 0.000000 -0.618750 0.000000 0
M  V30 4 O -0.714471 0.618750 0.000000 0
M  V30 5 C 0.714471 -0.206250 0.000000 0
M  V30 6 O 1.428942 -0.618750 0.000000 0
M  V30 7 O 0.714471 0.618750 0.000000 0
M  V30 8 C -2.143413 -0.206250 0.000000 0
M  V30 9 C -2.857884 -0.618750 0.000000 0
M  V30 10 C 2.143413 -0.206250 0.000000 0
M  V30 11 C 2.857884 -0.618750 0.000000 0
M  V30 END ATOM
M  V30 BEGIN BOND
M  V30 1 1 1 2
M  V30 2 1 2 3
M  V30 3 2 2 4
M  V30 4 1 3 5
M  V30 5 1 5 6
M  V30 6 2 5 7
M  V30 7 1 1 8
M  V30 8 1 8 9
M  V30 9 1 6 10
M  V30 10 1 10 11
M  V30 END BOND
M  V30 END CTAB
M  END
